384
 generated by VMD
 O         5.165999        5.012001        5.985999
 H         4.397000        4.902999        6.517999
 H         5.517001        5.786999        6.416999
 O        -4.259999        0.926000       -3.604001
 H        -4.173003        1.416001       -2.770000
 H        -5.030000        1.204000       -4.116002
 O         1.187999        0.791001       -2.050000
 H         0.438000        0.346000       -1.728001
 H         1.146000        1.753000       -2.000002
 O         0.324000        1.744000        7.517999
 H         0.114000        0.895000        7.901399
 H         1.244999        1.591000        7.397000
 O        -6.599999       -5.083002       -0.011002
 H        -7.318000       -4.423999        0.060001
 H        -6.129000       -4.909001       -0.841002
 O         7.515000        6.531001        4.532000
 H         8.034399        5.855999        5.013999
 H         6.895998        5.878000        4.040999
 O         0.472000        0.975001       -5.080999
 H         0.400000        0.644001       -4.139000
 H        -0.455002        1.066000       -5.337000
 O         0.316000       -4.806002        1.194001
 H         0.868000       -5.296999        1.852999
 H        -0.208000       -4.292001        1.852000
 O         1.108000       -3.826000        7.429999
 H         1.197000       -3.243001        6.661000
 H         0.272000       -4.320002        7.151999
 O         2.748000       -2.175003        1.011000
 H         1.942000       -2.395002        0.564000
 H         3.426000       -2.068000        0.309000
 O        -5.923001       -3.023002       -6.643000
 H        -6.830999       -3.071000       -7.040999
 H        -5.194002       -3.550000       -7.052001
 O         3.454000       -3.453002       -5.351000
 H         3.686000       -2.880000       -4.621000
 H         2.697999       -3.121003       -5.924999
 O        -1.495002       -5.766000        7.036000
 H        -0.884003       -6.435000        6.628000
 H        -2.283001       -5.933999        6.500999
 O         0.394001        7.401998        7.129000
 H         1.033000        6.965999        6.500999
 H        -0.274001        6.645999        7.401998
 O        -1.431000       -6.836999        2.977000
 H        -1.753999       -5.952001        2.479000
 H        -2.284002       -7.045001        3.447000
 O        -4.903998        2.494001        2.557000
 H        -4.931000        1.518000        2.767000
 H        -5.763002        2.659999        2.092999
 O         1.076001        8.190397       -4.297000
 H         0.399000        7.588999       -4.712999
 H         1.590001        8.289400       -5.068999
 O         3.364000        2.168000        5.817999
 H         2.413000        2.301000        5.619000
 H         3.664999        2.515000        6.640999
 O        -4.205001        7.937398        4.015998
 H        -4.159000        7.014998        4.372000
 H        -4.762002        8.265396        4.712999
 O        -6.703002       -1.601000       -4.081002
 H        -7.359000       -1.128000       -3.655002
 H        -6.231999       -0.933001       -4.558002
 O        -6.426003       -2.532002        1.370000
 H        -5.895000       -1.856001        0.730000
 H        -6.096002       -3.497000        1.381999
 O         2.711999        7.406999       -6.493001
 H         3.318000        7.520999       -7.277000
 H         1.857000        7.458999       -6.993000
 O        -3.616000       -3.954001       -3.964999
 H        -3.233002       -3.069003       -3.903000
 H        -3.601002       -4.401003       -4.855999
 O         6.301000       -5.001999       -6.596999
 H         5.496998       -4.447001       -6.458000
 H         6.905999       -4.795001       -5.871000
 O        -3.854001       -4.633002       -7.062001
 H        -2.879001       -4.999000       -6.993999
 H        -4.385002       -5.325000       -6.756001
 O        -0.730002       -3.745999        3.969000
 H         0.277000       -3.607000        4.012001
 H        -1.181001       -4.385002        4.607999
 O         6.225999        0.490000       -3.002001
 H         5.506999       -0.054001       -3.398002
 H         5.908000        1.240000       -2.419999
 O        -6.891000        5.395998        8.257399
 H        -6.935000        5.084000        7.279999
 H        -5.977002        5.285999        8.458395
 O         1.240000        6.258000       -2.150000
 H         0.336000        6.522000       -2.209000
 H         1.697000        7.185998       -2.259001
 O         5.878999        0.200000        1.854000
 H         5.045000        0.633000        1.680000
 H         6.008998        0.257000        2.801000
 O        -0.971999        6.213999       -4.601000
 H        -1.575002        6.300001       -3.836000
 H        -1.603003        6.111999       -5.395002
 O         8.278399        1.214000        3.145000
 H         7.727000        1.420000        3.923000
 H         8.943399        0.550001        3.396000
 O         3.187000       -6.622000        0.616001
 H         2.621999       -6.367001       -0.249001
 H         2.458000       -7.084999        1.132000
 O         2.506000       -5.787000       -1.763001
 H         1.750000       -5.213003       -1.771999
 H         2.384999       -6.287000       -2.605000
 O         4.889998       -4.102999       -0.162001
 H         4.797999       -5.039000        0.103000
 H         5.175998       -3.664000        0.687002
 O        -3.558000        4.265000        4.574000
 H        -4.275001        4.128000        5.248998
 H        -3.776002        3.774000        3.760999
 O         3.714000        3.178000        2.939999
 H         3.592999        3.169000        3.958999
 H         3.397999        2.300000        2.623000
 O        -4.589000        7.062998       -6.458000
 H        -3.713002        7.495998       -6.007998
 H        -5.354000        7.397000       -5.859001
 O        -5.158002        3.558000       -5.486000
 H        -6.059001        3.562999       -5.044001
 H        -5.243000        2.775000       -6.032002
 O        -6.209001        6.289999        1.923000
 H        -5.345000        6.790999        1.736000
 H        -6.246999        6.415999        2.881999
 O        -4.615002        2.204000        7.681000
 H        -4.760001        3.163000        7.428000
 H        -3.705999        2.226000        7.858399
 O         8.535398        5.296999       -3.528002
 H         7.659998        5.847998       -3.231000
 H         9.139397        5.274000       -2.767000
 O        -6.679998        8.165400       -1.750002
 H        -7.058000        8.854397       -1.185000
 H        -7.031000        7.342000       -1.470000
 O         6.900000        2.227999        0.451000
 H         6.818999        2.724000       -0.410001
 H         7.092000        1.288001        0.395999
 O         3.970999        6.991000       -2.320000
 H         4.040000        7.328998       -3.241001
 H         4.087999        7.724000       -1.653000
 O        -3.876002        4.837000        7.498999
 H        -2.959000        4.941000        7.701000
 H        -4.394001        5.448000        8.110401
 O         7.934399        4.003000        2.388000
 H         7.536998        3.270000        1.834000
 H         8.476397        4.659998        1.779000
 O         6.364000       -4.110000        3.724000
 H         5.800998       -4.485002        4.445001
 H         5.904000       -3.348999        3.381999
 O         4.746999       -2.408999        2.558000
 H         3.929999       -2.361000        1.930000
 H         5.126001       -1.466002        2.428000
 O        -0.266000       -5.025999       -5.480999
 H         0.730000       -5.188000       -5.426001
 H        -0.501001       -4.000000       -5.418000
 O         3.328999        0.762001        1.385000
 H         3.298000        0.795000        0.451999
 H         2.732999        0.050000        1.794000
 O        -2.868001       -0.285001        8.271400
 H        -3.760000       -0.286002        8.584398
 H        -3.121003       -0.252003        7.248999
 O         7.784998       -0.728002       -1.320002
 H         7.180000       -0.354002       -1.902000
 H         7.612000       -1.618999       -1.031000
 O        -1.127002        4.774000        7.416998
 H        -0.375000        4.445001        7.945400
 H        -0.993999        4.183000        6.591999
 O        -0.620001        6.381999        4.253000
 H        -1.388000        5.844000        4.024000
 H        -0.383000        5.630999        4.857000
 O        -3.393001       -0.088999        2.107999
 H        -2.457000        0.247001        2.060000
 H        -4.049000        0.239001        1.423000
 O         0.926000        4.000000       -6.005001
 H         0.637000        3.054000       -5.804999
 H         0.816000        4.615000       -5.303001
 O         1.430000        7.732000        2.755000
 H         1.855000        6.953000        2.343000
 H         0.476000        7.654000        2.656999
 O         7.582999       -2.810002        7.420999
 H         7.350000       -3.615001        6.850998
 H         7.337998       -1.928999        7.134999
 O         4.719999       -4.206000        6.387001
 H         4.150001       -4.995999        6.256000
 H         5.469999       -4.615002        6.783999
 O        -7.072999        4.067000        5.381000
 H        -6.942001        3.484000        4.620000
 H        -7.636000        3.484999        5.952999
 O        -4.673000       -5.837002        1.760000
 H        -5.532001       -5.889999        1.444001
 H        -4.578001       -6.173999        2.633999
 O        -6.978001        0.271000        6.528998
 H        -6.816000        0.616999        5.605999
 H        -7.617001        0.959000        6.904998
 O         0.522000       -6.221001        4.979000
 H         0.131001       -5.816999        4.247000
 H         0.463000       -7.190000        4.767999
 O         0.937000        4.349000        3.095999
 H         0.309000        3.783999        3.539999
 H         1.703000        3.894000        2.869000
 O         6.279998        7.282000       -6.474999
 H         7.010999        6.746000       -6.725999
 H         6.396000        8.161400       -6.939001
 O        -6.176000        2.484999       -2.323001
 H        -5.859001        3.316000       -2.655002
 H        -5.718001        2.382000       -1.482001
 O         1.963999       -3.441000        4.028000
 H         2.540000       -4.190001        4.021000
 H         2.540000       -2.657001        3.958999
 O        -1.560999       -5.971999       -2.994002
 H        -0.946000       -5.688000       -3.742000
 H        -2.375000       -5.465000       -3.107001
 O         4.423999        7.156001        4.158000
 H         4.649000        8.093401        3.985000
 H         5.168000        6.494000        4.151000
 O        -4.165000        2.189000       -0.625000
 H        -3.552999        2.895999       -1.002000
 H        -4.205001        2.229000        0.316000
 O         3.855999        6.242999        1.402000
 H         3.728999        7.028000        0.885000
 H         4.305999        6.581000        2.177000
 O        -0.299001        4.437999        0.070000
 H         0.296001        5.177000       -0.006001
 H        -0.199999        4.101000        0.989000
 O         3.562999        3.801000       -3.897002
 H         3.694999        4.617000       -4.463000
 H         4.460001        3.479000       -3.704002
 O         0.105000       -4.365002       -1.758000
 H        -0.718001       -4.605001       -2.207001
 H        -0.048001       -4.350999       -0.782001
 O        -4.896999       -5.103002       -2.061001
 H        -4.629001       -5.872000       -2.599000
 H        -4.709999       -4.400000       -2.749000
 O        -1.460001        7.038000       -2.176002
 H        -1.979001        6.788001       -1.443000
 H        -1.547001        8.057398       -2.191000
 O        -0.921001       -2.332001       -6.155000
 H        -1.088003       -2.602001       -7.144001
 H        -0.028001       -2.018002       -6.132001
 O         0.897000       -2.032001       -2.589001
 H         0.461000       -2.753003       -1.995000
 H         1.522999       -2.477002       -3.237000
 O        -2.709001       -1.975000        5.559999
 H        -1.818999       -1.869002        5.144999
 H        -3.295000       -2.447001        4.907000
 O        -5.372000       -0.256001       -6.348000
 H        -5.267002       -1.204000       -6.528002
 H        -6.062000        0.082000       -6.962001
 O         3.270000        3.338000       -7.256002
 H         2.982000        2.701000       -6.555002
 H         2.451999        3.882000       -7.224000
 O         5.734000        5.077000        2.748000
 H         6.688000        4.894000        2.413000
 H         5.312998        4.308000        2.534999
 O        -5.494000       -1.173001        3.802999
 H        -4.872002       -0.769000        3.150000
 H        -6.029000       -1.814002        3.296999
 O         3.242000       -1.614003        6.688000
 H         3.520999       -2.480999        6.435000
 H         4.026000       -1.234003        7.088998
 O         1.260999        3.622000       -2.454999
 H         2.143000        3.832000       -2.916999
 H         1.240000        4.050000       -1.613001
 O         4.354000        1.873000       -1.244002
 H         4.650000        2.417000       -0.377000
 H         3.671000        2.506999       -1.700000
 O         6.430999        4.344999       -5.316000
 H         7.281000        4.744999       -4.900001
 H         6.123999        5.085001       -5.808000
 O        -0.877001        1.444001        0.968000
 H        -1.188003        1.776999        0.178000
 H        -0.502000        0.543000        0.783000
 O        -5.987001        0.354000        0.660000
 H        -6.960002        0.410000        0.790000
 H        -5.939002        0.057000       -0.258001
 O        -0.132001       -1.519000        1.072000
 H        -1.084000       -1.841000        0.924000
 H         0.072001       -2.210003        1.751999
 O        -2.003001       -7.430001       -6.106001
 H        -1.649003       -6.678000       -5.518000
 H        -1.838000       -7.069000       -6.970002
 O         6.453999        6.737999       -3.540000
 H         5.713000        6.717000       -2.851999
 H         6.035000        7.047999       -4.347002
 O         1.721000       -1.303999       -6.004001
 H         2.644999       -1.479000       -6.377999
 H         1.840999       -0.651000       -5.337000
 O         3.022000       -6.607000        5.961000
 H         3.121000       -7.484000        5.471000
 H         2.147999       -6.332001        5.886000
 O        -5.218999        5.556000       -1.370000
 H        -4.457001        5.204000       -1.860003
 H        -5.025000        5.350998       -0.470002
 O        -2.355999        2.048999       -6.079000
 H        -3.073000        2.243001       -5.497003
 H        -2.416000        1.086000       -6.392000
 O        -5.293000       -1.644001       -1.237001
 H        -4.362000       -1.490000       -1.071002
 H        -5.590001       -1.864000       -2.128003
 O         6.955000       -3.552000       -2.441001
 H         6.537999       -3.870000       -1.641002
 H         7.869400       -3.956999       -2.558001
 O         6.882999        6.761000       -0.425001
 H         7.158999        7.240999        0.327000
 H         6.540000        5.980000        0.051001
 O        -0.870000        3.279000        5.080999
 H        -1.818999        3.498000        4.928999
 H        -0.743000        2.342000        4.861000
 O         7.071998        3.387000       -1.834002
 H         8.031401        3.043000       -2.214000
 H         6.927000        4.217998       -2.301001
 O        -2.078001       -1.003001       -0.835001
 H        -1.910000       -1.790000       -1.552001
 H        -2.254001       -0.249001       -1.363003
 O         8.047400        1.376000       -4.543000
 H         7.283998        0.892001       -4.089003
 H         8.462399        1.555000       -3.669000
 O        -2.506002       -1.209002       -3.911000
 H        -3.231000       -0.643999       -4.018001
 H        -2.127002       -1.217002       -4.790002
 O        -6.660999       -6.219999       -7.443000
 H        -7.572999       -5.845000       -7.511000
 H        -6.612001       -6.623000       -6.558000
 O         3.468000       -0.044000       -3.549000
 H         2.708000        0.040000       -2.924999
 H         3.590000        0.896000       -3.961999
 O        -2.770999        4.477001       -1.543999
 H        -2.040999        4.166000       -2.151999
 H        -2.264000        4.513999       -0.745000
 O        -7.333999       -6.365000        3.176999
 H        -7.641001       -7.011999        2.458999
 H        -7.728001       -6.848999        3.955000
 O        -3.465000        7.626000       -0.326001
 H        -3.358001        8.185398        0.514000
 H        -4.077001        8.017399       -0.958002
 O        -4.710999        7.843400        6.730999
 H        -4.559002        7.438999        7.556000
 H        -5.545999        8.253399        6.988999
 O         6.935000        2.667000        7.664999
 H         6.937999        3.353000        8.375397
 H         5.956999        2.674000        7.381000
 O         2.723000       -0.775002        4.030001
 H         3.076999       -0.955000        4.946000
 H         1.828001       -0.341002        4.298999
 O        -2.693000       -3.704999        1.683000
 H        -2.914001       -3.030001        2.420000
 H        -3.522001       -3.784001        1.263000
 O         5.826000       -0.366001        7.046000
 H         6.117000        0.167000        7.913399
 H         5.758000        0.250001        6.306999
 O         2.399000        6.251000        5.317000
 H         1.858000        5.837999        4.569000
 H         3.312001        6.494999        4.994000
 O         0.947000        1.454999        3.056999
 H         0.484000        1.809000        2.229000
 H         0.723000        0.500000        2.883000
 O         6.749999        8.632397        6.040998
 H         7.589000        9.090399        6.099999
 H         6.930000        7.677999        5.991999
 O         5.841999        2.386000        4.850999
 H         4.949999        2.267999        4.518001
 H         6.094999        3.086000        4.243000
 O         4.744000        1.306000       -5.827001
 H         4.817999        0.374000       -5.551000
 H         5.588999        1.694000       -5.745003
 O        -1.303000        1.663000       -2.708002
 H        -0.690000        2.357000       -2.869999
 H        -1.792001        1.568000       -3.563001
 O        -5.477000       -4.396000        4.385000
 H        -6.176000       -4.380001        5.050999
 H        -5.732999       -4.937002        3.657000
 O         5.713000       -6.474001        2.002000
 H         4.744000       -6.313000        1.770000
 H         6.102000       -5.656000        2.410000
 O         5.841999       -1.153002       -5.676999
 H         6.141999       -1.507000       -6.566000
 H         6.619000       -0.641001       -5.380001
 O        -3.374000        4.744999       -4.105000
 H        -2.507001        4.469000       -4.523001
 H        -4.142000        4.413001       -4.682000
 O        -7.137002       -4.602001       -4.873999
 H        -6.459000       -4.192999       -5.454000
 H        -7.451001       -3.768002       -4.441999
 O        -5.854000       -6.921000       -4.469999
 H        -6.429000       -6.086001       -4.528000
 H        -6.222000       -7.294000       -3.615001
 O         4.449000       -6.858001       -4.762999
 H         3.998000       -7.148999       -5.585000
 H         4.213000       -6.030000       -4.272001
